Use Case: Use openFOAM for computational fluid dynamics simulations.

Code details and examples: Code.

Sample Input File:

```
FoamFile
{
    version     2.0;
    format      ascii;
    class       dictionary;
    location    "system";
    object      fvSchemes;
}

ddtSchemes
{
    default         Euler;
}

gradSchemes
{
    default         Gauss linear;
}

divSchemes
{
    default         none;
    div(phi,U)      bounded Gauss upwind;
    div((nuEff*dev2(T(grad(U))))) Gauss linear;
}

laplacianSchemes
{
    default         Gauss linear orthogonal;
}

interpolationSchemes
{
    default         linear;
}

snGradSchemes
{
    default         orthogonal;
}

fluxRequired
{
    default         no;
    p               ;
}
```

In this example, the control dictionary, fvSchemes, is used for specifying numerical schemes.

Sample Code Snippet:

```cpp
#include "fvCFD.H"

int main(int argc, char *argv[])
{
    #include "setRootCase.H"
    #include "createTime.H"
    #include "createMesh.H"

    volScalarField r
    (
        IOobject
        (
            "r",
            runTime.timeName(),
            mesh,
            IOobject::NO_READ,
            IOobject::AUTO_WRITE
        ),
        mesh,
        dimensionedScalar("r", dimDensity, rhoMin),
        calculatedFvPatchScalarField::typeName
    );

    while (runTime.run())
    {
        runTime++;
        Info<< "Time = " << runTime.timeName() << nl << endl;

        #include "readPISOControls.H"
        #include "initContinuityErrs.H"

        // Pressure-velocity PISO corrector
        {
            #include "UEqn.H"

            // --- PISO loop
            for (int corr=0; corr<nCorr; corr++)
            {
                #include "pEqn.H"
            }
            if (pimple.constrainPatches())
            {
                #include "pEqn.H"
            }
        }
        runTime.write();
        Info<< "ExecutionTime = " << runTime.elapsedCpuTime() << " s"
            << "  ClockTime = " << runTime.elapsedClockTime() << " s"
            << nl << endl;
    }

    Info<< "End\n";
    return 0;
}
```

In the code snippet above, a pressure-velocity PISO (Pressure-Implicit with Splitting of Operators) corrector is implemented for solving basic fluid dynamics problems.

Command to run the use case: 

```
blockMesh
simpleFoam
paraFoam
```
It's recommended to make sure correct directory path is set before running the commands. First command 'blockMesh' will read the blockMeshDict file and create the mesh, Then 'simpleFoam' is the solver for steady state, incompressible fluid flows and Finally 'paraFoam' visualize the output results using ParaView.